@<TRIPOS>MOLECULE
*****
 26 27 0 0 0
SMALL
GASTEIGER

@<TRIPOS>ATOM
      1 C          -6.8227   -0.2029    0.8084 C.ar    1  UNL1        0.0954
      2 C          -6.3822   -1.5014    0.9175 C.ar    1  UNL1       -0.0121
      3 C          -5.0260   -1.4438    1.1456 C.ar    1  UNL1       -0.0134
      4 C          -4.7058   -0.0920    1.1638 C.ar    1  UNL1        0.1314
      5 C          -3.4010    0.5896    1.3664 C.2     1  UNL1        0.0230
      6 C          -2.1793    0.0671    1.5876 C.ar    1  UNL1        0.1323
      7 C          -1.7846   -1.2626    1.6907 C.ar    1  UNL1       -0.0128
      8 C          -0.4248   -1.2356    1.9203 C.ar    1  UNL1       -0.0053
      9 C          -0.0647    0.0979    1.9451 C.ar    1  UNL1        0.1244
     10 C           1.1593    0.5923    2.1390 C.2     1  UNL1       -0.0559
     11 H          -3.4531    1.6745    1.3282 H       1  UNL1        0.0691
     12 H           2.0105   -0.0617    2.3010 H       1  UNL1        0.0571
     13 H           1.3194    1.6658    2.1369 H       1  UNL1        0.0571
     14 H          -2.3628   -2.1624    1.6172 H       1  UNL1        0.0658
     15 O          -5.8025    0.6095    0.9594 O.2     1  UNL1       -0.4631
     16 O          -1.1258    0.8444    1.7450 O.2     1  UNL1       -0.4562
     17 H          -7.8402    0.1177    0.6276 H       1  UNL1        0.1032
     18 H          -4.4010   -2.3065    1.2743 H       1  UNL1        0.0658
     19 C          -7.2098   -2.7398    0.8104 C.3     1  UNL1       -0.0367
     20 H          -8.2738   -2.4825    0.6235 H       1  UNL1        0.0278
     21 H          -7.1397   -3.3171    1.7559 H       1  UNL1        0.0278
     22 H          -6.8377   -3.3645   -0.0282 H       1  UNL1        0.0278
     23 C           0.4652   -2.4255    2.1036 C.3     1  UNL1       -0.0361
     24 H          -0.1206   -3.3660    2.0299 H       1  UNL1        0.0279
     25 H           0.9467   -2.3809    3.1027 H       1  UNL1        0.0279
     26 H           1.2491   -2.4295    1.3178 H       1  UNL1        0.0279
@<TRIPOS>BOND
     1     1     2   ar
     2     2     3   ar
     3     4     5    1
     4     6     5    2
     5     4     3   ar
     6     7     8   ar
     7     8     9   ar
     8     9    10    2
     9     5    11    1
    10    10    12    1
    11    10    13    1
    12     6     7   ar
    13     7    14    1
    14     1    15   ar
    15     4    15   ar
    16     6    16   ar
    17     9    16   ar
    18     1    17    1
    19     3    18    1
    20     2    19    1
    21    19    20    1
    22    19    21    1
    23    19    22    1
    24     8    23    1
    25    23    24    1
    26    23    25    1
    27    23    26    1
